<?xml version="1.0" encoding="UTF-8"?>

<!-- generated on 12/01/20 20:32:59 by Eclipse SUMO netedit Version 1.7.0
<configuration xmlns:xsi="http://www.w3.org/2001/XMLSchema-instance" xsi:noNamespaceSchemaLocation="http://sumo.dlr.de/xsd/netconvertConfiguration.xsd">

    <output>
        <output-file value="C:\Users\hp\Desktop\SUMO\highway.net.xml"/>
    </output>

    <processing>
        <offset.disable-normalization value="true"/>
    </processing>

    <junctions>
        <no-turnarounds value="true"/>
    </junctions>

    <netedit>
        <additional-files value="C:\Users\hp\Desktop\SUMO\highway.add.xml"/>
    </netedit>

    <report>
        <aggregate-warnings value="5"/>
    </report>

</configuration>
-->

<additional xmlns:xsi="http://www.w3.org/2001/XMLSchema-instance" xsi:noNamespaceSchemaLocation="http://sumo.dlr.de/xsd/additional_file.xsd">

	<rerouter id="rerouter_0" edges="e1" probability="1">
		<interval begin="0" end="10000">
			<destProbReroute id="e2" />
		</interval>
	</rerouter>
	
	<parkingArea id="p2" lane="e2_0" startPos="60" endPos="90" roadsideCapacity="3" angle="45" length="30"/>
	
    <parkingArea id="p1" lane="e1_0" startPos="70" endPos="90" roadsideCapacity="0" width="5" length="10" angle="30">
    <space x="853" y="623"/>
    <space x="863" y="618"/>
    <space x="848" y="611" width="4" length="8" angle="120"/>
    <space x="858" y="606" width="4" length="8" angle="120"/>
    <space x="868" y="601" width="4" length="8" angle="120"/>
</parkingArea>

</additional>
