<?xml version="1.0" encoding="UTF-8"?>

<!-- generated on 12/13/20 19:56:32 by Eclipse SUMO netconvert Version 1.7.0
<configuration xmlns:xsi="http://www.w3.org/2001/XMLSchema-instance" xsi:noNamespaceSchemaLocation="http://sumo.dlr.de/xsd/netconvertConfiguration.xsd">

    <input>
        <osm-files value="map.osm"/>
    </input>

    <output>
        <output-file value="map.net.xml"/>
    </output>

    <projection>
        <proj.utm value="true"/>
    </projection>

    <report>
        <aggregate-warnings value="5"/>
    </report>

</configuration>
-->

<net version="1.6" junctionCornerDetail="5" limitTurnSpeed="5.50" xmlns:xsi="http://www.w3.org/2001/XMLSchema-instance" xsi:noNamespaceSchemaLocation="http://sumo.dlr.de/xsd/net_file.xsd">

    <location netOffset="-684301.67,-5911439.35" convBoundary="0.00,0.00,1020.02,994.52" origBoundary="-6.232731,53.319823,-6.217509,53.329066" projParameter="+proj=utm +zone=29 +ellps=WGS84 +datum=WGS84 +units=m +no_defs"/>

    <type id="highway.bridleway" priority="1" numLanes="1" speed="2.78" allow="pedestrian" oneway="1" width="2.00"/>
    <type id="highway.bus_guideway" priority="1" numLanes="1" speed="27.78" allow="bus" oneway="1"/>
    <type id="highway.cycleway" priority="1" numLanes="1" speed="8.33" allow="bicycle" oneway="0" width="1.00"/>
    <type id="highway.footway" priority="1" numLanes="1" speed="2.78" allow="pedestrian" oneway="1" width="2.00"/>
    <type id="highway.ford" priority="1" numLanes="1" speed="2.78" allow="army" oneway="0"/>
    <type id="highway.living_street" priority="2" numLanes="1" speed="2.78" disallow="tram rail_urban rail rail_electric rail_fast ship" oneway="0"/>
    <type id="highway.motorway" priority="14" numLanes="2" speed="39.44" allow="private emergency authority army vip passenger hov taxi bus coach delivery truck trailer motorcycle evehicle custom1 custom2" oneway="1"/>
    <type id="highway.motorway_link" priority="9" numLanes="1" speed="22.22" allow="private emergency authority army vip passenger hov taxi bus coach delivery truck trailer motorcycle evehicle custom1 custom2" oneway="1"/>
    <type id="highway.path" priority="1" numLanes="1" speed="2.78" allow="pedestrian bicycle" oneway="1" width="2.00"/>
    <type id="highway.pedestrian" priority="1" numLanes="1" speed="2.78" allow="pedestrian" oneway="1" width="2.00"/>
    <type id="highway.primary" priority="12" numLanes="2" speed="27.78" disallow="tram rail_urban rail rail_electric rail_fast ship" oneway="0"/>
    <type id="highway.primary_link" priority="7" numLanes="1" speed="22.22" disallow="tram rail_urban rail rail_electric rail_fast ship" oneway="0"/>
    <type id="highway.raceway" priority="15" numLanes="2" speed="83.33" allow="vip" oneway="0"/>
    <type id="highway.residential" priority="3" numLanes="1" speed="13.89" disallow="tram rail_urban rail rail_electric rail_fast ship" oneway="0"/>
    <type id="highway.secondary" priority="11" numLanes="1" speed="27.78" disallow="tram rail_urban rail rail_electric rail_fast ship" oneway="0"/>
    <type id="highway.secondary_link" priority="6" numLanes="1" speed="22.22" disallow="tram rail_urban rail rail_electric rail_fast ship" oneway="0"/>
    <type id="highway.service" priority="1" numLanes="1" speed="5.56" allow="pedestrian delivery bicycle" oneway="0"/>
    <type id="highway.stairs" priority="1" numLanes="1" speed="1.39" allow="pedestrian" oneway="1" width="2.00"/>
    <type id="highway.step" priority="1" numLanes="1" speed="1.39" allow="pedestrian" oneway="1" width="2.00"/>
    <type id="highway.steps" priority="1" numLanes="1" speed="1.39" allow="pedestrian" oneway="1" width="2.00"/>
    <type id="highway.tertiary" priority="10" numLanes="1" speed="22.22" disallow="tram rail_urban rail rail_electric rail_fast ship" oneway="0"/>
    <type id="highway.tertiary_link" priority="5" numLanes="1" speed="22.22" disallow="tram rail_urban rail rail_electric rail_fast ship" oneway="0"/>
    <type id="highway.track" priority="1" numLanes="1" speed="5.56" allow="pedestrian motorcycle moped bicycle" oneway="0"/>
    <type id="highway.trunk" priority="13" numLanes="2" speed="27.78" disallow="pedestrian bicycle tram rail_urban rail rail_electric rail_fast ship" oneway="0"/>
    <type id="highway.trunk_link" priority="8" numLanes="1" speed="22.22" disallow="pedestrian bicycle tram rail_urban rail rail_electric rail_fast ship" oneway="0"/>
    <type id="highway.unclassified" priority="4" numLanes="1" speed="13.89" disallow="tram rail_urban rail rail_electric rail_fast ship" oneway="0"/>
    <type id="highway.unsurfaced" priority="1" numLanes="1" speed="8.33" disallow="tram rail_urban rail rail_electric rail_fast ship" oneway="0"/>
    <type id="railway.highspeed" priority="21" numLanes="1" speed="69.44" allow="rail_fast" oneway="1"/>
    <type id="railway.light_rail" priority="19" numLanes="1" speed="27.78" allow="rail_urban" oneway="1"/>
    <type id="railway.preserved" priority="16" numLanes="1" speed="27.78" allow="rail" oneway="1"/>
    <type id="railway.rail" priority="20" numLanes="1" speed="44.44" allow="rail" oneway="1"/>
    <type id="railway.subway" priority="18" numLanes="1" speed="27.78" allow="rail_urban" oneway="1"/>
    <type id="railway.tram" priority="17" numLanes="1" speed="13.89" allow="tram" oneway="1"/>

    <edge id=":1233933117_0" function="internal">
        <lane id=":1233933117_0_0" index="0" disallow="tram rail_urban rail rail_electric rail_fast ship" speed="13.89" length="0.10" shape="972.66,301.13 972.71,301.07"/>
    </edge>
    <edge id=":1233933117_1" function="internal">
        <lane id=":1233933117_1_0" index="0" disallow="tram rail_urban rail rail_electric rail_fast ship" speed="13.89" length="0.10" shape="970.19,299.11 970.24,299.04"/>
    </edge>
    <edge id=":1387531779_0" function="internal">
        <lane id=":1387531779_0_0" index="0" disallow="tram rail_urban rail rail_electric rail_fast ship" speed="3.65" length="4.67" shape="1018.76,241.22 1020.12,240.77 1021.00,240.94 1021.39,241.75 1021.29,243.18"/>
    </edge>
    <edge id=":1390922697_0" function="internal">
        <lane id=":1390922697_0_0" index="0" allow="pedestrian bicycle" speed="4.17" length="4.53" shape="308.40,671.87 307.75,670.66 306.95,669.94 306.01,669.69 304.92,669.92"/>
    </edge>
    <edge id=":1390922697_1" function="internal">
        <lane id=":1390922697_1_0" index="0" allow="pedestrian bicycle" speed="4.17" length="7.38" shape="308.40,671.87 307.52,669.25 307.23,667.24 307.54,665.86 308.42,665.09"/>
    </edge>
    <edge id=":1390922697_2" function="internal">
        <lane id=":1390922697_2_0" index="0" allow="pedestrian delivery bicycle" speed="5.56" length="5.02" shape="309.59,668.07 304.92,669.92"/>
    </edge>
    <edge id=":1390922697_3" function="internal">
        <lane id=":1390922697_3_0" index="0" allow="pedestrian delivery bicycle" speed="3.65" length="2.34" shape="309.59,668.07 308.18,667.76 307.51,667.16"/>
    </edge>
    <edge id=":1390922697_6" function="internal">
        <lane id=":1390922697_6_0" index="0" allow="pedestrian delivery bicycle" speed="3.65" length="2.34" shape="307.51,667.16 307.60,666.27 308.42,665.09"/>
    </edge>
    <edge id=":1390922697_4" function="internal">
        <lane id=":1390922697_4_0" index="0" allow="pedestrian delivery bicycle" speed="5.56" length="5.06" shape="303.72,666.95 308.42,665.09"/>
    </edge>
    <edge id=":1390922697_5" function="internal">
        <lane id=":1390922697_5_0" index="0" allow="pedestrian delivery bicycle" speed="3.65" length="2.34" shape="303.72,666.95 305.13,667.25 305.80,667.84"/>
    </edge>
    <edge id=":1390922697_7" function="internal">
        <lane id=":1390922697_7_0" index="0" allow="pedestrian delivery bicycle" speed="3.65" length="2.34" shape="305.80,667.84 305.73,668.73 304.92,669.92"/>
    </edge>
    <edge id=":1390922770_0" function="internal">
        <lane id=":1390922770_0_0" index="0" allow="pedestrian delivery bicycle" speed="5.56" length="4.90" shape="331.65,724.35 327.09,726.13"/>
    </edge>
    <edge id=":1390922770_1" function="internal">
        <lane id=":1390922770_1_0" index="0" allow="pedestrian bicycle" speed="4.17" length="7.43" width="2.00" shape="331.65,724.35 330.45,724.39 329.29,723.56 328.18,721.86 327.12,719.30"/>
    </edge>
    <edge id=":1390922770_2" function="internal">
        <lane id=":1390922770_2_0" index="0" allow="pedestrian delivery bicycle" speed="3.65" length="4.67" shape="331.65,724.35 330.25,724.03 329.59,723.42 329.68,722.53 330.52,721.36"/>
    </edge>
    <edge id=":1390922770_3" function="internal">
        <lane id=":1390922770_3_0" index="0" allow="pedestrian bicycle" speed="4.17" length="4.55" width="2.00" shape="325.90,723.16 326.81,722.58 327.32,721.74 327.43,720.65 327.12,719.30"/>
    </edge>
    <edge id=":1390922770_4" function="internal">
        <lane id=":1390922770_4_0" index="0" allow="pedestrian delivery bicycle" speed="5.56" length="4.97" shape="325.90,723.16 330.52,721.36"/>
    </edge>
    <edge id=":1390922770_5" function="internal">
        <lane id=":1390922770_5_0" index="0" allow="pedestrian delivery bicycle" speed="3.65" length="4.67" shape="325.90,723.16 327.31,723.46 327.98,724.05 327.91,724.94 327.09,726.13"/>
    </edge>
    <edge id=":1393782400_0" function="internal">
        <lane id=":1393782400_0_0" index="0" allow="pedestrian delivery bicycle" speed="5.00" length="5.04" shape="518.60,406.04 517.38,405.38 516.25,405.28 515.21,405.74 514.27,406.76"/>
    </edge>
    <edge id=":1393782400_1" function="internal">
        <lane id=":1393782400_1_0" index="0" allow="pedestrian delivery bicycle" speed="5.56" length="10.17" shape="518.60,406.04 516.58,404.07 515.64,401.94 515.78,399.65 516.99,397.20"/>
    </edge>
    <edge id=":1393782400_2" function="internal">
        <lane id=":1393782400_2_0" index="0" allow="pedestrian delivery bicycle" speed="3.65" length="4.67" shape="518.60,406.04 518.11,404.69 518.27,403.81 519.07,403.40 520.51,403.47"/>
    </edge>
    <edge id=":1393782400_3" function="internal">
        <lane id=":1393782400_3_0" index="0" allow="pedestrian delivery bicycle" speed="5.15" length="5.14" shape="519.62,399.02 519.02,400.24 518.97,401.39 519.47,402.47 520.51,403.47"/>
    </edge>
    <edge id=":1393782400_4" function="internal">
        <lane id=":1393782400_4_0" index="0" allow="pedestrian delivery bicycle" speed="5.56" length="9.40" shape="519.62,399.02 514.27,406.76"/>
    </edge>
    <edge id=":1393782400_5" function="internal">
        <lane id=":1393782400_5_0" index="0" allow="pedestrian delivery bicycle" speed="3.65" length="4.67" shape="519.62,399.02 518.28,399.56 517.39,399.43 516.96,398.65 516.99,397.20"/>
    </edge>
    <edge id=":1393782400_6" function="internal">
        <lane id=":1393782400_6_0" index="0" allow="pedestrian delivery bicycle" speed="5.56" length="9.40" shape="511.64,404.94 516.99,397.20"/>
    </edge>
    <edge id=":1393782400_7" function="internal">
        <lane id=":1393782400_7_0" index="0" allow="pedestrian delivery bicycle" speed="5.56" length="10.33" shape="511.64,404.94 513.57,402.85 515.69,401.91 518.01,402.12 520.51,403.47"/>
    </edge>
    <edge id=":1393782400_8" function="internal">
        <lane id=":1393782400_8_0" index="0" allow="pedestrian delivery bicycle" speed="3.65" length="4.67" shape="511.64,404.94 512.98,404.41 513.86,404.53 514.30,405.32 514.27,406.76"/>
    </edge>
    <edge id=":1393787766_0" function="internal">
        <lane id=":1393787766_0_0" index="0" allow="pedestrian delivery bicycle" speed="5.56" length="5.80" shape="612.70,345.13 611.46,345.07 610.24,345.48 609.05,346.37 607.89,347.73"/>
    </edge>
    <edge id=":1393787766_1" function="internal">
        <lane id=":1393787766_1_0" index="0" allow="pedestrian delivery bicycle" speed="5.56" length="9.10" shape="612.70,345.13 610.09,344.45 608.36,343.81 606.71,342.94 604.39,341.57"/>
    </edge>
    <edge id=":1393787766_2" function="internal">
        <lane id=":1393787766_2_0" index="0" allow="pedestrian delivery bicycle" speed="3.65" length="4.67" shape="612.70,345.13 611.72,344.07 611.51,343.20 612.09,342.52 613.44,342.02"/>
    </edge>
    <edge id=":1393787766_3" function="internal">
        <lane id=":1393787766_3_0" index="0" allow="pedestrian delivery bicycle" speed="5.56" length="8.16" shape="606.01,338.81 608.09,340.04 609.56,340.83 611.11,341.41 613.44,342.02"/>
    </edge>
    <edge id=":1393787766_4" function="internal">
        <lane id=":1393787766_4_0" index="0" allow="pedestrian delivery bicycle" speed="5.56" length="10.64" shape="606.01,338.81 608.32,340.65 609.40,342.75 609.26,345.11 607.89,347.73"/>
    </edge>
    <edge id=":1393787766_5" function="internal">
        <lane id=":1393787766_5_0" index="0" allow="pedestrian delivery bicycle" speed="3.65" length="4.67" shape="606.01,338.81 606.64,340.10 606.58,341.00 605.83,341.48 604.39,341.57"/>
    </edge>
    <edge id=":1393787766_6" function="internal">
        <lane id=":1393787766_6_0" index="0" allow="pedestrian delivery bicycle" speed="4.94" length="5.12" shape="605.29,345.86 605.95,344.60 606.02,343.46 605.50,342.45 604.39,341.57"/>
    </edge>
    <edge id=":1393787766_7" function="internal">
        <lane id=":1393787766_7_0" index="0" allow="pedestrian delivery bicycle" speed="5.56" length="9.59" shape="605.29,345.86 607.14,343.77 609.11,342.43 611.21,341.84 613.44,342.02"/>
    </edge>
    <edge id=":1393787766_8" function="internal">
        <lane id=":1393787766_8_0" index="0" allow="pedestrian delivery bicycle" speed="3.65" length="4.67" shape="605.29,345.86 606.64,345.35 607.53,345.50 607.94,346.29 607.89,347.73"/>
    </edge>
    <edge id=":1393787767_0" function="internal">
        <lane id=":1393787767_0_0" index="0" allow="pedestrian delivery bicycle" speed="6.50" length="6.67" shape="674.71,349.84 674.05,348.73 672.88,347.93 671.20,347.42 669.01,347.20"/>
    </edge>
    <edge id=":1393787767_1" function="internal">
        <lane id=":1393787767_1_0" index="0" disallow="tram rail_urban rail rail_electric rail_fast ship" speed="13.89" length="9.79" shape="674.71,349.84 671.69,340.52"/>
    </edge>
    <edge id=":1393787767_2" function="internal">
        <lane id=":1393787767_2_0" index="0" disallow="tram rail_urban rail rail_electric rail_fast ship" speed="3.65" length="2.34" shape="674.71,349.84 675.10,348.45 675.74,347.82"/>
    </edge>
    <edge id=":1393787767_9" function="internal">
        <lane id=":1393787767_9_0" index="0" disallow="tram rail_urban rail rail_electric rail_fast ship" speed="3.65" length="2.34" shape="675.74,347.82 676.63,347.95 677.76,348.85"/>
    </edge>
    <edge id=":1393787767_3" function="internal">
        <lane id=":1393787767_3_0" index="0" disallow="tram rail_urban rail rail_electric rail_fast ship" speed="13.89" length="9.79" shape="674.73,339.54 677.76,348.85"/>
    </edge>
    <edge id=":1393787767_4" function="internal">
        <lane id=":1393787767_4_0" index="0" allow="pedestrian delivery bicycle" speed="6.68" length="5.41" shape="674.73,339.54 675.34,342.97 674.76,344.81"/>
    </edge>
    <edge id=":1393787767_5" function="internal">
        <lane id=":1393787767_5_0" index="0" disallow="tram rail_urban rail rail_electric rail_fast ship" speed="3.65" length="2.34" shape="674.73,339.54 674.34,340.92 673.71,341.55"/>
    </edge>
    <edge id=":1393787767_10" function="internal">
        <lane id=":1393787767_10_0" index="0" allow="pedestrian delivery bicycle" speed="6.68" length="6.64" shape="674.76,344.81 674.58,345.40 672.47,346.81 669.01,347.20"/>
    </edge>
    <edge id=":1393787767_11" function="internal">
        <lane id=":1393787767_11_0" index="0" disallow="tram rail_urban rail rail_electric rail_fast ship" speed="3.65" length="2.34" shape="673.71,341.55 672.82,341.42 671.69,340.52"/>
    </edge>
    <edge id=":1393787767_6" function="internal">
        <lane id=":1393787767_6_0" index="0" allow="pedestrian delivery bicycle" speed="4.76" length="5.47" shape="669.09,344.01 670.66,343.83 671.62,343.19 671.96,342.08 671.69,340.52"/>
    </edge>
    <edge id=":1393787767_7" function="internal">
        <lane id=":1393787767_7_0" index="0" allow="pedestrian delivery bicycle" speed="8.04" length="10.61" shape="669.09,344.01 672.31,344.38 674.83,345.31 676.65,346.80 677.76,348.85"/>
    </edge>
    <edge id=":1393787767_8" function="internal">
        <lane id=":1393787767_8_0" index="0" allow="pedestrian delivery bicycle" speed="3.65" length="4.67" shape="669.09,344.01 670.27,344.84 670.65,345.65 670.23,346.44 669.01,347.20"/>
    </edge>
    <edge id=":1393787773_0" function="internal">
        <lane id=":1393787773_0_0" index="0" allow="pedestrian delivery bicycle" speed="5.56" length="9.00" shape="551.03,430.93 544.09,425.20"/>
    </edge>
    <edge id=":1393787773_1" function="internal">
        <lane id=":1393787773_1_0" index="0" allow="pedestrian delivery bicycle" speed="5.56" length="9.97" shape="551.03,430.93 549.37,428.92 548.71,426.76 549.04,424.45 550.36,422.01"/>
    </edge>
    <edge id=":1393787773_2" function="internal">
        <lane id=":1393787773_2_0" index="0" allow="pedestrian delivery bicycle" speed="3.65" length="4.67" shape="551.03,430.93 550.67,429.53 550.91,428.67 551.75,428.35 553.17,428.56"/>
    </edge>
    <edge id=":1393787773_3" function="internal">
        <lane id=":1393787773_3_0" index="0" allow="pedestrian delivery bicycle" speed="5.32" length="5.22" shape="552.96,423.88 552.24,425.19 552.03,426.40 552.34,427.53 553.17,428.56"/>
    </edge>
    <edge id=":1393787773_4" function="internal">
        <lane id=":1393787773_4_0" index="0" allow="pedestrian delivery bicycle" speed="5.56" length="10.28" shape="552.96,423.88 551.00,425.91 548.86,426.81 546.56,426.57 544.09,425.20"/>
    </edge>
    <edge id=":1393787773_5" function="internal">
        <lane id=":1393787773_5_0" index="0" allow="pedestrian delivery bicycle" speed="3.65" length="4.67" shape="552.96,423.88 551.61,424.38 550.72,424.24 550.31,423.45 550.36,422.01"/>
    </edge>
    <edge id=":1393787773_6" function="internal">
        <lane id=":1393787773_6_0" index="0" allow="pedestrian delivery bicycle" speed="5.01" length="5.03" shape="546.03,422.65 547.23,423.32 548.36,423.44 549.40,423.00 550.36,422.01"/>
    </edge>
    <edge id=":1393787773_7" function="internal">
        <lane id=":1393787773_7_0" index="0" allow="pedestrian delivery bicycle" speed="5.56" length="9.27" shape="546.03,422.65 553.17,428.56"/>
    </edge>
    <edge id=":1393787773_8" function="internal">
        <lane id=":1393787773_8_0" index="0" allow="pedestrian delivery bicycle" speed="3.65" length="4.67" shape="546.03,422.65 546.50,424.02 546.33,424.89 545.53,425.29 544.09,425.20"/>
    </edge>
    <edge id=":1912601538_0" function="internal">
        <lane id=":1912601538_0_0" index="0" disallow="tram rail_urban rail rail_electric rail_fast ship" speed="3.65" length="4.67" shape="321.74,536.40 322.31,537.73 322.21,538.62 321.44,539.07 319.99,539.09"/>
    </edge>
    <edge id=":1912607046_0" function="internal">
        <lane id=":1912607046_0_0" index="0" disallow="tram rail_urban rail rail_electric rail_fast ship" speed="3.65" length="4.67" shape="323.50,479.30 324.00,480.65 323.86,481.53 323.07,481.95 321.62,481.90"/>
    </edge>
    <edge id=":256891832_0" function="internal">
        <lane id=":256891832_0_0" index="0" disallow="tram rail_urban rail rail_electric rail_fast ship" speed="3.65" length="4.67" shape="847.79,560.39 849.19,560.03 850.05,560.26 850.38,561.09 850.18,562.52"/>
    </edge>
    <edge id=":277968642_0" function="internal">
        <lane id=":277968642_0_0" index="0" disallow="tram rail_urban rail rail_electric rail_fast ship" speed="3.65" length="4.67" shape="559.34,1.70 560.25,0.58 561.09,0.26 561.85,0.74 562.52,2.01"/>
    </edge>
    <edge id=":277968647_0" function="internal">
        <lane id=":277968647_0_0" index="0" allow="pedestrian delivery bicycle" speed="3.65" length="4.67" shape="315.34,174.15 316.74,173.79 317.60,174.03 317.93,174.86 317.72,176.29"/>
    </edge>
    <edge id=":2803143970_0" function="internal">
        <lane id=":2803143970_0_0" index="0" allow="pedestrian delivery bicycle" speed="3.65" length="4.67" shape="74.47,502.27 73.27,501.47 72.87,500.67 73.28,499.87 74.48,499.07"/>
    </edge>
    <edge id=":2803154393_0" function="internal">
        <lane id=":2803154393_0_0" index="0" allow="pedestrian delivery bicycle" speed="3.65" length="4.67" shape="87.61,404.50 88.46,403.33 89.28,402.97 90.06,403.40 90.81,404.64"/>
    </edge>
    <edge id=":2803154396_0" function="internal">
        <lane id=":2803154396_0_0" index="0" allow="pedestrian delivery bicycle" speed="5.02" length="5.02" shape="98.05,473.99 96.68,473.89 95.61,474.26 94.84,475.09 94.38,476.39"/>
    </edge>
    <edge id=":2803154396_1" function="internal">
        <lane id=":2803154396_1_0" index="0" allow="pedestrian delivery bicycle" speed="5.56" length="10.01" shape="98.05,473.99 95.44,473.04 93.68,471.53 92.78,469.45 92.73,466.81"/>
    </edge>
    <edge id=":2803154396_2" function="internal">
        <lane id=":2803154396_2_0" index="0" allow="pedestrian delivery bicycle" speed="3.65" length="4.67" shape="98.05,473.99 97.05,472.95 96.83,472.08 97.39,471.39 98.73,470.86"/>
    </edge>
    <edge id=":2803154396_3" function="internal">
        <lane id=":2803154396_3_0" index="0" allow="pedestrian delivery bicycle" speed="5.25" length="5.16" shape="95.91,467.22 95.94,468.55 96.42,469.60 97.35,470.37 98.73,470.86"/>
    </edge>
    <edge id=":2803154396_4" function="internal">
        <lane id=":2803154396_4_0" index="0" allow="pedestrian delivery bicycle" speed="5.56" length="9.30" shape="95.91,467.22 94.38,476.39"/>
    </edge>
    <edge id=":2803154396_5" function="internal">
        <lane id=":2803154396_5_0" index="0" allow="pedestrian delivery bicycle" speed="3.65" length="4.67" shape="95.91,467.22 94.96,468.31 94.11,468.60 93.37,468.10 92.73,466.81"/>
    </edge>
    <edge id=":2803154396_6" function="internal">
        <lane id=":2803154396_6_0" index="0" allow="pedestrian delivery bicycle" speed="5.56" length="9.08" shape="91.24,475.76 92.73,466.81"/>
    </edge>
    <edge id=":2803154396_7" function="internal">
        <lane id=":2803154396_7_0" index="0" allow="pedestrian delivery bicycle" speed="5.56" length="10.24" shape="91.24,475.76 92.18,473.11 93.74,471.41 95.93,470.66 98.73,470.86"/>
    </edge>
    <edge id=":2803154396_8" function="internal">
        <lane id=":2803154396_8_0" index="0" allow="pedestrian delivery bicycle" speed="3.65" length="4.67" shape="91.24,475.76 92.26,474.74 93.13,474.50 93.83,475.05 94.38,476.39"/>
    </edge>
    <edge id=":2803154398_0" function="internal">
        <lane id=":2803154398_0_0" index="0" disallow="tram rail_urban rail rail_electric rail_fast ship" speed="6.53" length="8.29" shape="161.97,489.64 159.87,488.87 157.97,488.90 156.25,489.74 154.73,491.38"/>
    </edge>
    <edge id=":2803154398_1" function="internal">
        <lane id=":2803154398_1_0" index="0" allow="pedestrian delivery bicycle" speed="9.72" length="12.18" shape="161.97,489.64 159.02,488.14 156.46,487.05 153.81,486.20 150.60,485.42"/>
    </edge>
    <edge id=":2803154398_2" function="internal">
        <lane id=":2803154398_2_0" index="0" disallow="tram rail_urban rail rail_electric rail_fast ship" speed="8.83" length="12.67" shape="161.97,489.64 159.13,487.67 157.23,485.28 156.27,482.49 156.24,479.28"/>
    </edge>
    <edge id=":2803154398_3" function="internal">
        <lane id=":2803154398_3_0" index="0" disallow="tram rail_urban rail rail_electric rail_fast ship" speed="3.65" length="4.67" shape="161.97,489.64 161.29,488.37 161.32,487.48 162.05,486.96 163.48,486.82"/>
    </edge>
    <edge id=":2803154398_4" function="internal">
        <lane id=":2803154398_4_0" index="0" disallow="tram rail_urban rail rail_electric rail_fast ship" speed="7.44" length="8.78" shape="159.41,479.70 159.44,481.88 160.13,483.79 161.48,485.44 163.48,486.82"/>
    </edge>
    <edge id=":2803154398_5" function="internal">
        <lane id=":2803154398_5_0" index="0" disallow="tram rail_urban rail rail_electric rail_fast ship" speed="13.89" length="12.73" shape="159.41,479.70 158.81,483.04 157.90,485.86 156.58,488.52 154.73,491.38"/>
    </edge>
    <edge id=":2803154398_6" function="internal">
        <lane id=":2803154398_6_0" index="0" allow="pedestrian delivery bicycle" speed="7.03" length="6.05" shape="159.41,479.70 158.33,482.16 156.12,484.15 155.76,484.30"/>
    </edge>
    <edge id=":2803154398_7" function="internal">
        <lane id=":2803154398_7_0" index="0" disallow="tram rail_urban rail rail_electric rail_fast ship" speed="3.65" length="2.34" shape="159.41,479.70 158.46,480.78 157.62,481.08"/>
    </edge>
    <edge id=":2803154398_16" function="internal">
        <lane id=":2803154398_16_0" index="0" allow="pedestrian delivery bicycle" speed="7.03" length="5.38" shape="155.76,484.30 153.35,485.34 150.60,485.42"/>
    </edge>
    <edge id=":2803154398_17" function="internal">
        <lane id=":2803154398_17_0" index="0" disallow="tram rail_urban rail rail_electric rail_fast ship" speed="3.65" length="2.34" shape="157.62,481.08 156.88,480.58 156.24,479.28"/>
    </edge>
    <edge id=":2803154398_8" function="internal">
        <lane id=":2803154398_8_0" index="0" allow="pedestrian delivery bicycle" speed="5.57" length="6.75" shape="151.28,482.30 153.26,482.48 154.74,482.03 155.74,480.97 156.24,479.28"/>
    </edge>
    <edge id=":2803154398_9" function="internal">
        <lane id=":2803154398_9_0" index="0" allow="pedestrian delivery bicycle" speed="9.72" length="13.06" shape="151.28,482.30 154.63,483.13 157.56,484.08 160.40,485.27 163.48,486.82"/>
    </edge>
    <edge id=":2803154398_10" function="internal">
        <lane id=":2803154398_10_0" index="0" allow="pedestrian delivery bicycle" speed="6.27" length="10.81" shape="151.28,482.30 153.42,483.64 154.89,486.10 155.42,488.94 154.73,491.38"/>
    </edge>
    <edge id=":2803154398_11" function="internal">
        <lane id=":2803154398_11_0" index="0" allow="pedestrian delivery bicycle" speed="3.65" length="4.67" shape="151.28,482.30 152.28,483.34 152.50,484.20 151.94,484.90 150.60,485.42"/>
    </edge>
    <edge id=":2803154398_12" function="internal">
        <lane id=":2803154398_12_0" index="0" allow="pedestrian delivery bicycle" speed="4.76" length="5.64" shape="152.11,489.55 152.87,488.06 152.88,486.87 152.12,486.00 150.60,485.42"/>
    </edge>
    <edge id=":2803154398_13" function="internal">
        <lane id=":2803154398_13_0" index="0" disallow="tram rail_urban rail rail_electric rail_fast ship" speed="13.89" length="11.23" shape="152.11,489.55 153.87,486.91 155.00,484.74 155.72,482.40 156.24,479.28"/>
    </edge>
    <edge id=":2803154398_14" function="internal">
        <lane id=":2803154398_14_0" index="0" disallow="tram rail_urban rail rail_electric rail_fast ship" speed="8.03" length="3.03" shape="152.11,489.55 154.17,487.32"/>
    </edge>
    <edge id=":2803154398_15" function="internal">
        <lane id=":2803154398_15_0" index="0" disallow="tram rail_urban rail rail_electric rail_fast ship" speed="3.65" length="2.34" shape="152.11,489.55 153.45,489.02 154.34,489.15"/>
    </edge>
    <edge id=":2803154398_18" function="internal">
        <lane id=":2803154398_18_0" index="0" disallow="tram rail_urban rail rail_electric rail_fast ship" speed="8.03" length="9.99" shape="154.17,487.32 154.50,486.97 157.19,485.66 160.18,485.61 163.48,486.82"/>
    </edge>
    <edge id=":2803154398_19" function="internal">
        <lane id=":2803154398_19_0" index="0" disallow="tram rail_urban rail rail_electric rail_fast ship" speed="3.65" length="2.34" shape="154.34,489.15 154.76,489.94 154.73,491.38"/>
    </edge>
    <edge id=":32335103_0" function="internal">
        <lane id=":32335103_0_0" index="0" disallow="tram rail_urban rail rail_electric rail_fast ship" speed="3.65" length="4.67" shape="540.29,747.86 540.91,749.16 540.85,750.05 540.10,750.54 538.66,750.62"/>
    </edge>
    <edge id=":32335104_0" function="internal">
        <lane id=":32335104_0_0" index="0" disallow="tram rail_urban rail rail_electric rail_fast ship" speed="3.65" length="4.67" shape="547.33,739.07 546.01,739.65 545.12,739.56 544.66,738.79 544.64,737.35"/>
    </edge>
    <edge id=":32335109_0" function="internal">
        <lane id=":32335109_0_0" index="0" disallow="tram rail_urban rail rail_electric rail_fast ship" speed="13.89" length="14.21" shape="744.95,528.21 734.45,537.78"/>
    </edge>
    <edge id=":32335109_1" function="internal">
        <lane id=":32335109_1_0" index="0" disallow="tram rail_urban rail rail_electric rail_fast ship" speed="8.00" length="5.73" shape="744.95,528.21 741.70,530.33 739.88,530.66"/>
    </edge>
    <edge id=":32335109_2" function="internal">
        <lane id=":32335109_2_0" index="0" disallow="tram rail_urban rail rail_electric rail_fast ship" speed="3.65" length="2.34" shape="744.95,528.21 743.52,528.40 742.69,528.06"/>
    </edge>
    <edge id=":32335109_8" function="internal">
        <lane id=":32335109_8_0" index="0" disallow="tram rail_urban rail rail_electric rail_fast ship" speed="8.00" length="8.45" shape="739.88,530.66 738.54,530.91 735.49,529.93 732.54,527.41"/>
    </edge>
    <edge id=":32335109_9" function="internal">
        <lane id=":32335109_9_0" index="0" disallow="tram rail_urban rail rail_electric rail_fast ship" speed="3.65" length="2.34" shape="742.69,528.06 742.46,527.20 742.84,525.80"/>
    </edge>
    <edge id=":32335109_3" function="internal">
        <lane id=":32335109_3_0" index="0" disallow="tram rail_urban rail rail_electric rail_fast ship" speed="6.51" length="9.02" shape="734.94,525.30 736.82,526.90 738.76,527.52 740.77,527.16 742.84,525.80"/>
    </edge>
    <edge id=":32335109_4" function="internal">