<?xml version="1.0" encoding="UTF-8"?>

<!-- generated on 02/15/21 14:01:24 by Eclipse SUMO netedit Version 1.8.0
<configuration xmlns:xsi="http://www.w3.org/2001/XMLSchema-instance" xsi:noNamespaceSchemaLocation="http://sumo.dlr.de/xsd/netconvertConfiguration.xsd">

    <input>
        <sumo-net-file value="D:\Desktop%20Work\GitHub\Parking-Simulation-SUMO\Parking\ParkingDesign.net.xml"/>
    </input>

    <output>
        <output-file value="D:\Desktop%20Work\GitHub\Parking-Simulation-SUMO\Parking\ParkingDesign.net.xml"/>
    </output>

    <processing>
        <geometry.min-radius.fix.railways value="false"/>
        <geometry.max-grade.fix value="false"/>
        <offset.disable-normalization value="true"/>
        <lefthand value="false"/>
    </processing>

    <junctions>
        <no-turnarounds value="true"/>
        <junctions.corner-detail value="5"/>
        <junctions.limit-turn-speed value="5.5"/>
        <rectangular-lane-cut value="false"/>
    </junctions>

    <pedestrian>
        <walkingareas value="false"/>
    </pedestrian>

    <report>
        <aggregate-warnings value="5"/>
    </report>

</configuration>
-->

<net version="1.6" junctionCornerDetail="5" limitTurnSpeed="5.50" xmlns:xsi="http://www.w3.org/2001/XMLSchema-instance" xsi:noNamespaceSchemaLocation="http://sumo.dlr.de/xsd/net_file.xsd">

    <location netOffset="0.00,0.00" convBoundary="-40.00,-10.00,40.00,100.00" origBoundary="-10000000000.00,-10000000000.00,10000000000.00,10000000000.00" projParameter="!"/>

    <edge id=":10_0" function="internal">
        <lane id=":10_0_0" index="0" speed="13.89" length="14.40" shape="35.20,64.00 35.20,49.60"/>
        <lane id=":10_0_1" index="1" speed="13.89" length="14.40" shape="38.40,64.00 38.40,49.60"/>
    </edge>
    <edge id=":10_2" function="internal">
        <lane id=":10_2_0" index="0" speed="6.51" length="9.03" shape="29.60,55.20 32.05,54.85 33.80,53.80 34.85,52.05 35.20,49.60"/>
    </edge>
    <edge id=":10_3" function="internal">
        <lane id=":10_3_0" index="0" speed="8.00" length="14.19" shape="29.60,58.40 33.45,57.85 36.20,56.20 37.85,53.45 38.40,49.60"/>
    </edge>
    <edge id=":11_0" function="internal">
        <lane id=":11_0_0" index="0" speed="6.08" length="7.74" shape="-44.80,20.00 -44.50,17.90 -43.60,16.40 -42.10,15.50 -40.00,15.20"/>
    </edge>
    <edge id=":11_1" function="internal">
        <lane id=":11_1_0" index="0" speed="3.90" length="2.58" shape="-41.60,20.00 -41.50,19.30 -41.20,18.80 -40.70,18.50 -40.00,18.40"/>
    </edge>
    <edge id=":12_0" function="internal">
        <lane id=":12_0_0" index="0" speed="8.00" length="4.06" shape="-24.80,24.00 -24.25,20.15 -24.16,20.00"/>
    </edge>
    <edge id=":12_1" function="internal">
        <lane id=":12_1_0" index="0" speed="6.51" length="4.28" shape="-21.60,24.00 -21.25,21.55 -20.32,20.00"/>
    </edge>
    <edge id=":12_4" function="internal">
        <lane id=":12_4_0" index="0" speed="8.00" length="10.13" shape="-24.16,20.00 -22.60,17.40 -19.85,15.75 -16.00,15.20"/>
    </edge>
    <edge id=":12_5" function="internal">
        <lane id=":12_5_0" index="0" speed="6.51" length="4.75" shape="-20.32,20.00 -20.20,19.80 -18.45,18.75 -16.00,18.40"/>
    </edge>
    <edge id=":12_2" function="internal">
        <lane id=":12_2_0" index="0" speed="13.89" length="14.40" shape="-30.40,15.20 -16.00,15.20"/>
        <lane id=":12_2_1" index="1" speed="13.89" length="14.40" shape="-30.40,18.40 -16.00,18.40"/>
    </edge>
    <edge id=":13_0" function="internal">
        <lane id=":13_0_0" index="0" speed="13.89" length="14.40" shape="-4.80,24.00 -4.80,9.60"/>
        <lane id=":13_0_1" index="1" speed="13.89" length="14.40" shape="-1.60,24.00 -1.60,9.60"/>
    </edge>
    <edge id=":13_2" function="internal">
        <lane id=":13_2_0" index="0" speed="6.51" length="4.28" shape="-1.60,24.00 -1.25,21.55 -0.32,20.00"/>
    </edge>
    <edge id=":13_6" function="internal">
        <lane id=":13_6_0" index="0" speed="6.51" length="4.75" shape="-0.32,20.00 -0.20,19.80 1.55,18.75 4.00,18.40"/>
    </edge>
    <edge id=":13_3" function="internal">
        <lane id=":13_3_0" index="0" speed="6.51" length="9.03" shape="-10.40,15.20 -7.95,14.85 -6.20,13.80 -5.15,12.05 -4.80,9.60"/>
    </edge>
    <edge id=":13_4" function="internal">
        <lane id=":13_4_0" index="0" speed="13.89" length="14.40" shape="-10.40,15.20 4.00,15.20"/>
        <lane id=":13_4_1" index="1" speed="13.89" length="14.40" shape="-10.40,18.40 4.00,18.40"/>
    </edge>
    <edge id=":14_0" function="internal">
        <lane id=":14_0_0" index="0" speed="8.00" length="4.06" shape="15.20,24.00 15.75,20.15 15.84,20.00"/>
    </edge>
    <edge id=":14_1" function="internal">
        <lane id=":14_1_0" index="0" speed="6.51" length="4.28" shape="18.40,24.00 18.75,21.55 19.68,20.00"/>
    </edge>
    <edge id=":14_4" function="internal">
        <lane id=":14_4_0" index="0" speed="8.00" length="10.13" shape="15.84,20.00 17.40,17.40 20.15,15.75 24.00,15.20"/>
    </edge>
    <edge id=":14_5" function="internal">
        <lane id=":14_5_0" index="0" speed="6.51" length="4.75" shape="19.68,20.00 19.80,19.80 21.55,18.75 24.00,18.40"/>
    </edge>
    <edge id=":14_2" function="internal">
        <lane id=":14_2_0" index="0" speed="13.89" length="14.40" shape="9.60,15.20 24.00,15.20"/>
        <lane id=":14_2_1" index="1" speed="13.89" length="14.40" shape="9.60,18.40 24.00,18.40"/>
    </edge>
    <edge id=":2_0" function="internal">
        <lane id=":2_0_0" index="0" speed="7.33" length="11.73" shape="-30.40,98.40 -27.95,97.85 -26.20,96.20 -25.15,93.45 -24.80,89.60"/>
    </edge>
    <edge id=":2_1" function="internal">
        <lane id=":2_1_0" index="0" speed="8.00" length="14.19" shape="-30.40,98.40 -26.55,97.85 -23.80,96.20 -22.15,93.45 -21.60,89.60"/>
    </edge>
    <edge id=":2_2" function="internal">
        <lane id=":2_2_0" index="0" speed="13.89" length="14.62" shape="-30.40,98.40 -27.08,97.90 -24.09,96.80 -20.66,95.70 -16.00,95.20"/>
        <lane id=":2_2_1" index="1" speed="13.89" length="14.62" shape="-30.40,98.40 -16.00,98.40"/>
    </edge>
    <edge id=":3_0" function="internal">
        <lane id=":3_0_0" index="0" speed="6.51" length="9.03" shape="-10.40,95.20 -7.95,94.85 -6.20,93.80 -5.15,92.05 -4.80,89.60"/>
    </edge>
    <edge id=":3_1" function="internal">
        <lane id=":3_1_0" index="0" speed="7.33" length="11.73" shape="-10.40,95.20 -6.55,94.85 -3.80,93.80 -2.15,92.05 -1.60,89.60"/>
    </edge>
    <edge id=":3_2" function="internal">
        <lane id=":3_2_0" index="0" speed="13.89" length="14.40" shape="-10.40,95.20 4.00,95.20"/>
        <lane id=":3_2_1" index="1" speed="13.89" length="14.40" shape="-10.40,98.40 4.00,98.40"/>
    </edge>
    <edge id=":4_0" function="internal">
        <lane id=":4_0_0" index="0" speed="6.51" length="9.03" shape="9.60,95.20 12.05,94.85 13.80,93.80 14.85,92.05 15.20,89.60"/>
    </edge>
    <edge id=":4_1" function="internal">
        <lane id=":4_1_0" index="0" speed="7.33" length="11.73" shape="9.60,95.20 13.45,94.85 16.20,93.80 17.85,92.05 18.40,89.60"/>
    </edge>
    <edge id=":4_2" function="internal">
        <lane id=":4_2_0" index="0" speed="13.89" length="14.40" shape="9.60,95.20 24.00,95.20"/>
        <lane id=":4_2_1" index="1" speed="13.89" length="14.40" shape="9.60,98.40 24.00,98.40"/>
    </edge>
    <edge id=":5_0" function="internal">
        <lane id=":5_0_0" index="0" speed="3.90" length="2.58" shape="33.60,95.20 34.30,95.10 34.80,94.80 35.10,94.30 35.20,93.60"/>
    </edge>
    <edge id=":5_1" function="internal">
        <lane id=":5_1_0" index="0" speed="6.08" length="7.74" shape="33.60,98.40 35.70,98.10 37.20,97.20 38.10,95.70 38.40,93.60"/>
    </edge>
    <edge id=":6_0" function="internal">
        <lane id=":6_0_0" index="0" speed="13.89" length="14.40" shape="-44.80,64.00 -44.80,49.60"/>
        <lane id=":6_0_1" index="1" speed="13.89" length="14.40" shape="-41.60,64.00 -41.60,49.60"/>
    </edge>
    <edge id=":6_2" function="internal">
        <lane id=":6_2_0" index="0" speed="7.33" length="11.73" shape="-41.60,64.00 -41.25,60.15 -40.20,57.40 -38.45,55.75 -36.00,55.20"/>
    </edge>
    <edge id=":6_3" function="internal">
        <lane id=":6_3_0" index="0" speed="6.51" length="9.03" shape="-41.60,64.00 -41.25,61.55 -40.20,59.80 -38.45,58.75 -36.00,58.40"/>
    </edge>
    <edge id=":7_0" function="internal">
        <lane id=":7_0_0" index="0" speed="13.89" length="14.40" shape="-24.80,64.00 -24.80,49.60"/>
        <lane id=":7_0_1" index="1" speed="13.89" length="14.40" shape="-21.60,64.00 -21.60,49.60"/>
    </edge>
    <edge id=":7_2" function="internal">
        <lane id=":7_2_0" index="0" speed="6.51" length="4.28" shape="-21.60,64.00 -21.25,61.55 -20.32,60.00"/>
    </edge>
    <edge id=":7_6" function="internal">
        <lane id=":7_6_0" index="0" speed="6.51" length="4.75" shape="-20.32,60.00 -20.20,59.80 -18.45,58.75 -16.00,58.40"/>
    </edge>
    <edge id=":7_3" function="internal">
        <lane id=":7_3_0" index="0" speed="6.51" length="9.03" shape="-30.40,55.20 -27.95,54.85 -26.20,53.80 -25.15,52.05 -24.80,49.60"/>
    </edge>
    <edge id=":7_4" function="internal">
        <lane id=":7_4_0" index="0" speed="13.89" length="14.40" shape="-30.40,55.20 -16.00,55.20"/>
        <lane id=":7_4_1" index="1" speed="13.89" length="14.40" shape="-30.40,58.40 -16.00,58.40"/>
    </edge>
    <edge id=":8_0" function="internal">
        <lane id=":8_0_0" index="0" speed="13.89" length="14.40" shape="-4.80,64.00 -4.80,49.60"/>
        <lane id=":8_0_1" index="1" speed="13.89" length="14.40" shape="-1.60,64.00 -1.60,49.60"/>
    </edge>
    <edge id=":8_2" function="internal">
        <lane id=":8_2_0" index="0" speed="6.51" length="4.28" shape="-1.60,64.00 -1.25,61.55 -0.32,60.00"/>
    </edge>
    <edge id=":8_6" function="internal">
        <lane id=":8_6_0" index="0" speed="6.51" length="4.75" shape="-0.32,60.00 -0.20,59.80 1.55,58.75 4.00,58.40"/>
    </edge>
    <edge id=":8_3" function="internal">
        <lane id=":8_3_0" index="0" speed="6.51" length="9.03" shape="-10.40,55.20 -7.95,54.85 -6.20,53.80 -5.15,52.05 -4.80,49.60"/>
    </edge>
    <edge id=":8_4" function="internal">
        <lane id=":8_4_0" index="0" speed="13.89" length="14.40" shape="-10.40,55.20 4.00,55.20"/>
        <lane id=":8_4_1" index="1" speed="13.89" length="14.40" shape="-10.40,58.40 4.00,58.40"/>
    </edge>
    <edge id=":9_0" function="internal">
        <lane id=":9_0_0" index="0" speed="13.89" length="14.40" shape="15.20,64.00 15.20,49.60"/>
        <lane id=":9_0_1" index="1" speed="13.89" length="14.40" shape="18.40,64.00 18.40,49.60"/>
    </edge>
    <edge id=":9_2" function="internal">
        <lane id=":9_2_0" index="0" speed="6.51" length="4.28" shape="18.40,64.00 18.75,61.55 19.68,60.00"/>
    </edge>
    <edge id=":9_6" function="internal">
        <lane id=":9_6_0" index="0" speed="6.51" length="4.75" shape="19.68,60.00 19.80,59.80 21.55,58.75 24.00,58.40"/>
    </edge>
    <edge id=":9_3" function="internal">
        <lane id=":9_3_0" index="0" speed="6.51" length="9.03" shape="9.60,55.20 12.05,54.85 13.80,53.80 14.85,52.05 15.20,49.60"/>
    </edge>
    <edge id=":9_4" function="internal">
        <lane id=":9_4_0" index="0" speed="13.89" length="14.40" shape="9.60,55.20 24.00,55.20"/>
        <lane id=":9_4_1" index="1" speed="13.89" length="14.40" shape="9.60,58.40 24.00,58.40"/>
    </edge>

    <edge id="gneE25" from="1" to="2" priority="-1">
        <lane id="gneE25_0" index="0" speed="13.89" length="8.10" shape="-38.50,98.40 -30.40,98.40"/>
    </edge>
    <edge id="gneE26" from="2" to="3" priority="-1">
        <lane id="gneE26_0" index="0" speed="13.89" length="5.60" shape="-16.00,95.20 -10.40,95.20"/>
        <lane id="gneE26_1" index="1" speed="13.89" length="5.60" shape="-16.00,98.40 -10.40,98.40"/>
    </edge>
    <edge id="gneE27" from="3" to="4" priority="-1">
        <lane id="gneE27_0" index="0" speed="13.89" length="5.60" shape="4.00,95.20 9.60,95.20"/>
        <lane id="gneE27_1" index="1" speed="13.89" length="5.60" shape="4.00,98.40 9.60,98.40"/>
    </edge>
    <edge id="gneE28" from="4" to="5" priority="-1">
        <lane id="gneE28_0" index="0" speed="13.89" length="9.60" shape="24.00,95.20 33.60,95.20"/>
        <lane id="gneE28_1" index="1" speed="13.89" length="9.60" shape="24.00,98.40 33.60,98.40"/>
    </edge>
    <edge id="gneE29" from="1" to="6" priority="-1">
        <lane id="gneE29_0" index="0" speed="13.89" length="31.30" shape="-44.80,95.30 -44.80,64.00"/>
        <lane id="gneE29_1" index="1" speed="13.89" length="31.30" shape="-41.60,95.30 -41.60,64.00"/>
    </edge>
    <edge id="gneE30" from="6" to="11" priority="-1">
        <lane id="gneE30_0" index="0" speed="13.89" length="29.60" shape="-44.80,49.60 -44.80,20.00"/>
        <lane id="gneE30_1" index="1" speed="13.89" length="29.60" shape="-41.60,49.60 -41.60,20.00"/>
    </edge>
    <edge id="gneE31" from="2" to="7" priority="-1">
        <lane id="gneE31_0" index="0" speed="13.89" length="25.60" shape="-24.80,89.60 -24.80,64.00"/>
        <lane id="gneE31_1" index="1" speed="13.89" length="25.60" shape="-21.60,89.60 -21.60,64.00"/>
    </edge>
    <edge id="gneE32" from="7" to="12" priority="-1">
        <lane id="gneE32_0" index="0" speed="13.89" length="25.60" shape="-24.80,49.60 -24.80,24.00"/>
        <lane id="gneE32_1" index="1" speed="13.89" length="25.60" shape="-21.60,49.60 -21.60,24.00"/>
    </edge>
    <edge id="gneE33" from="3" to="8" priority="-1">
        <lane id="gneE33_0" index="0" speed="13.89" length="25.60" shape="-4.80,89.60 -4.80,64.00"/>
        <lane id="gneE33_1" index="1" speed="13.89" length="25.60" shape="-1.60,89.60 -1.60,64.00"/>
    </edge>
    <edge id="gneE34" from="8" to="13" priority="-1">
        <lane id="gneE34_0" index="0" speed="13.89" length="25.60" shape="-4.80,49.60 -4.80,24.00"/>
        <lane id="gneE34_1" index="1" speed="13.89" length="25.60" shape="-1.60,49.60 -1.60,24.00"/>
    </edge>
    <edge id="gneE35" from="4" to="9" priority="-1">
        <lane id="gneE35_0" index="0" speed="13.89" length="25.60" shape="15.20,89.60 15.20,64.00"/>
        <lane id="gneE35_1" index="1" speed="13.89" length="25.60" shape="18.40,89.60 18.40,64.00"/>
    </edge>
    <edge id="gneE36" from="9" to="14" priority="-1">
        <lane id="gneE36_0" index="0" speed="13.89" length="25.60" shape="15.20,49.60 15.20,24.00"/>
        <lane id="gneE36_1" index="1" speed="13.89" length="25.60" shape="18.40,49.60 18.40,24.00"/>
    </edge>
    <edge id="gneE37" from="5" to="10" priority="-1">
        <lane id="gneE37_0" index="0" speed="13.89" length="29.60" shape="35.20,93.60 35.20,64.00"/>
        <lane id="gneE37_1" index="1" speed="13.89" length="29.60" shape="38.40,93.60 38.40,64.00"/>
    </edge>
    <edge id="gneE38" from="10" to="15" priority="-1">
        <lane id="gneE38_0" index="0" speed="13.89" length="28.10" shape="35.20,49.60 35.20,21.50"/>
        <lane id="gneE38_1" index="1" speed="13.89" length="28.10" shape="38.40,49.60 38.40,21.50"/>
    </edge>
    <edge id="gneE39" from="6" to="7" priority="-1">
        <lane id="gneE39_0" index="0" speed="13.89" length="5.60" shape="-36.00,55.20 -30.40,55.20"/>
        <lane id="gneE39_1" index="1" speed="13.89" length="5.60" shape="-36.00,58.40 -30.40,58.40"/>
    </edge>
    <edge id="gneE40" from="7" to="8" priority="-1">
        <lane id="gneE40_0" index="0" speed="13.89" length="5.60" shape="-16.00,55.20 -10.40,55.20"/>
        <lane id="gneE40_1" index="1" speed="13.89" length="5.60" shape="-16.00,58.40 -10.40,58.40"/>
    </edge>
    <edge id="gneE41" from="8" to="9" priority="-1">
        <lane id="gneE41_0" index="0" speed="13.89" length="5.60" shape="4.00,55.20 9.60,55.20"/>
        <lane id="gneE41_1" index="1" speed="13.89" length="5.60" shape="4.00,58.40 9.60,58.40"/>
    </edge>
    <edge id="gneE42" from="9" to="10" priority="-1">
        <lane id="gneE42_0" index="0" speed="13.89" length="5.60" shape="24.00,55.20 29.60,55.20"/>
        <lane id="gneE42_1" index="1" speed="13.89" length="5.60" shape="24.00,58.40 29.60,58.40"/>
    </edge>
    <edge id="gneE43" from="11" to="12" priority="-1">
        <lane id="gneE43_0" index="0" speed="13.89" length="9.60" shape="-40.00,15.20 -30.40,15.20"/>
        <lane id="gneE43_1" index="1" speed="13.89" length="9.60" shape="-40.00,18.40 -30.40,18.40"/>
    </edge>
    <edge id="gneE44" from="12" to="13" priority="-1">
        <lane id="gneE44_0" index="0" speed="13.89" length="5.60" shape="-16.00,15.20 -10.40,15.20"/>
        <lane id="gneE44_1" index="1" speed="13.89" length="5.60" shape="-16.00,18.40 -10.40,18.40"/>
    </edge>
    <edge id="gneE45" from="13" to="14" priority="-1">
        <lane id="gneE45_0" index="0" speed="13.89" length="5.60" shape="4.00,15.20 9.60,15.20"/>
        <lane id="gneE45_1" index="1" speed="13.89" length="5.60" shape="4.00,18.40 9.60,18.40"/>
    </edge>
    <edge id="gneE46" from="14" to="15" priority="-1">
        <lane id="gneE46_0" index="0" speed="13.89" length="8.10" shape="24.00,15.20 32.10,15.20"/>
        <lane id="gneE46_1" index="1" speed="13.89" length="8.10" shape="24.00,18.40 32.10,18.40"/>
    </edge>
    <edge id="gneE47" from="13" to="16" priority="-1">
        <lane id="gneE47_0" index="0" speed="13.89" length="19.60" shape="-4.80,9.60 -4.80,-10.00"/>
        <lane id="gneE47_1" index="1" speed="13.89" length="19.60" shape="-1.60,9.60 -1.60,-10.00"/>
    </edge>

    <junction id="1" type="dead_end" x="-40.00" y="100.00" incLanes="" intLanes="" shape="-38.50,100.00 -38.50,96.80 -39.33,96.63 -39.62,96.43 -39.83,96.13 -39.96,95.76 -40.00,95.30 -46.40,95.30 -45.52,97.91 -44.42,98.83 -42.89,99.48 -40.91,99.87"/>
    <junction id="10" type="priority" x="40.00" y="60.00" incLanes="gneE37_0 gneE37_1 gneE42_0 gneE42_1" intLanes=":10_0_0 :10_0_1 :10_2_0 :10_3_0" shape="33.60,64.00 40.00,64.00 40.00,49.60 33.60,49.60 33.16,51.82 32.60,52.60 31.82,53.16 30.82,53.49 29.60,53.60 29.60,60.00 31.82,60.44 32.60,61.00 33.16,61.78 33.49,62.78">
        <request index="0" response="1100" foes="1100" cont="0"/>
        <request index="1" response="1100" foes="1100" cont="0"/>
        <request index="2" response="0000" foes="0011" cont="0"/>
        <request index="3" response="0000" foes="0011" cont="0"/>
    </junction>
    <junction id="11" type="priority" x="-40.00" y="20.00" incLanes="gneE30_0 gneE30_1" intLanes=":11_0_0 :11_1_0" shape="-46.40,20.00 -40.00,20.00 -40.00,13.60 -43.56,14.31 -44.80,15.20 -45.69,16.44 -46.22,18.04">
        <request index="0" response="00" foes="00" cont="0"/>
        <request index="1" response="00" foes="00" cont="0"/>
    </junction>
    <junction id="12" type="priority" x="-20.00" y="20.00" incLanes="gneE32_0 gneE32_1 gneE43_0 gneE43_1" intLanes=":12_4_0 :12_5_0 :12_2_0 :12_2_1" shape="-26.40,24.00 -20.00,24.00 -19.56,21.78 -19.00,21.00 -18.22,20.44 -17.22,20.11 -16.00,20.00 -16.00,13.60 -30.40,13.60 -30.40,20.00 -28.18,20.44 -27.40,21.00 -26.84,21.78 -26.51,22.78">
        <request index="0" response="1100" foes="1100" cont="1"/>
        <request index="1" response="1100" foes="1100" cont="1"/>
        <request index="2" response="0000" foes="0011" cont="0"/>
        <request index="3" response="0000" foes="0011" cont="0"/>
    </junction>
    <junction id="13" type="priority" x="0.00" y="20.00" incLanes="gneE34_0 gneE34_1 gneE44_0 gneE44_1" intLanes=":13_0_0 :13_0_1 :13_6_0 :13_3_0 :13_4_0 :13_4_1" shape="-6.40,24.00 0.00,24.00 0.44,21.78 1.00,21.00 1.78,20.44 2.78,20.11 4.00,20.00 4.00,13.60 1.78,13.16 1.00,12.60 0.44,11.82 0.11,10.82 0.00,9.60 -6.40,9.60 -6.84,11.82 -7.40,12.60 -8.18,13.16 -9.18,13.49 -10.40,13.60 -10.40,20.00 -8.18,20.44 -7.40,21.00 -6.84,21.78 -6.51,22.78">
        <request index="0" response="111000" foes="111000" cont="0"/>
        <request index="1" response="111000" foes="111000" cont="0"/>
        <request index="2" response="110000" foes="110000" cont="1"/>
        <request index="3" response="000000" foes="000011" cont="0"/>
        <request index="4" response="000000" foes="000111" cont="0"/>
        <request index="5" response="000000" foes="000111" cont="0"/>
    </junction>
    <junction id="14" type="priority" x="20.00" y="20.00" incLanes="gneE36_0 gneE36_1 gneE45_0 gneE45_1" intLanes=":14_4_0 :14_5_0 :14_2_0 :14_2_1" shape="13.60,24.00 20.00,24.00 20.44,21.78 21.00,21.00 21.78,20.44 22.78,20.11 24.00,20.00 24.00,13.60 9.60,13.60 9.60,20.00 11.82,20.44 12.60,21.00 13.16,21.78 13.49,22.78">
        <request index="0" response="1100" foes="1100" cont="1"/>
        <request index="1" response="1100" foes="1100" cont="1"/>
        <request index="2" response="0000" foes="0011" cont="0"/>
        <request index="3" response="0000" foes="0011" cont="0"/>
    </junction>
    <junction id="15" type="dead_end" x="40.00" y="20.00" incLanes="gneE38_0 gneE38_1 gneE46_0 gneE46_1" intLanes="" shape="33.60,21.50 40.00,21.50 39.78,19.09 39.12,17.11 38.02,15.57 36.49,14.48 34.51,13.82 32.10,13.60 32.10,20.00 32.93,20.17 33.22,20.38 33.43,20.67 33.56,21.04"/>
    <junction id="16" type="dead_end" x="0.00" y="-10.00" incLanes="gneE47_0 gneE47_1" intLanes="" shape="-6.40,-10.00 0.00,-10.00"/>
    <junction id="2" type="priority" x="-20.00" y="100.00" incLanes="gneE25_0" intLanes=":2_0_0 :2_1_0 :2_2_0 :2_2_1" shape="-16.00,100.00 -16.00,93.60 -18.22,93.16 -19.00,92.60 -19.56,91.82 -19.89,90.82 -20.00,89.60 -26.40,89.60 -26.51,91.80 -26.84,93.60 -27.40,95.00 -28.18,96.00 -29.18,96.60 -30.40,96.80 -30.40,100.00">
        <request index="0" response="0000" foes="0000" cont="0"/>
        <request index="1" response="0000" foes="0000" cont="0"/>
        <request index="2" response="0000" foes="0000" cont="0"/>
        <request index="3" response="0000" foes="0000" cont="0"/>
    </junction>
    <junction id="3" type="priority" x="0.00" y="100.00" incLanes="gneE26_0 gneE26_1" intLanes=":3_0_0 :3_1_0 :3_2_0 :3_2_1" shape="4.00,100.00 4.00,93.60 1.78,93.16 1.00,92.60 0.44,91.82 0.11,90.82 0.00,89.60 -6.40,89.60 -6.84,91.82 -7.40,92.60 -8.18,93.16 -9.18,93.49 -10.40,93.60 -10.40,100.00">
        <request index="0" response="0000" foes="0000" cont="0"/>
        <request index="1" response="0000" foes="0000" cont="0"/>
        <request index="2" response="0000" foes="0000" cont="0"/>
        <request index="3" response="0000" foes="0000" cont="0"/>
    </junction>
    <junction id="4" type="priority" x="20.00" y="100.00" incLanes="gneE27_0 gneE27_1" intLanes=":4_0_0 :4_1_0 :4_2_0 :4_2_1" shape="24.00,100.00 24.00,93.60 21.78,93.16 21.00,92.60 20.44,91.82 20.11,90.82 20.00,89.60 13.60,89.60 13.16,91.82 12.60,92.60 11.82,93.16 10.82,93.49 9.60,93.60 9.60,100.00">
        <request index="0" response="0000" foes="0000" cont="0"/>
        <request index="1" response="0000" foes="0000" cont="0"/>
        <request index="2" response="0000" foes="0000" cont="0"/>
        <request index="3" response="0000" foes="0000" cont="0"/>
    </junction>
    <junction id="5" type="priority" x="40.00" y="100.00" incLanes="gneE28_0 gneE28_1" intLanes=":5_0_0 :5_1_0" shape="40.00,93.60 33.60,93.60 33.60,100.00 37.16,99.29 38.40,98.40 39.29,97.16 39.82,95.56">
        <request index="0" response="00" foes="00" cont="0"/>
        <request index="1" response="00" foes="00" cont="0"/>
    </junction>
    <junction id="6" type="priority" x="-40.00" y="60.00" incLanes="gneE29_0 gneE29_1" intLanes=":6_0_0 :6_0_1 :6_2_0 :6_3_0" shape="-46.40,64.00 -40.00,64.00 -39.56,61.78 -39.00,61.00 -38.22,60.44 -37.22,60.11 -36.00,60.00 -36.00,53.60 -38.22,53.16 -39.00,52.60 -39.56,51.82 -39.89,50.82 -40.00,49.60 -46.40,49.60">
        <request index="0" response="0000" foes="0000" cont="0"/>
        <request index="1" response="0000" foes="0000" cont="0"/>
        <request index="2" response="0000" foes="0000" cont="0"/>
        <request index="3" response="0000" foes="0000" cont="0"/>
    </junction>
    <junction id="7" type="priority" x="-20.00" y="60.00" incLanes="gneE31_0 gneE31_1 gneE39_0 gneE39_1" intLanes=":7_0_0 :7_0_1 :7_6_0 :7_3_0 :7_4_0 :7_4_1" shape="-26.40,64.00 -20.00,64.00 -19.56,61.78 -19.00,61.00 -18.22,60.44 -17.22,60.11 -16.00,60.00 -16.00,53.60 -18.22,53.16 -19.00,52.60 -19.56,51.82 -19.89,50.82 -20.00,49.60 -26.40,49.60 -26.84,51.82 -27.40,52.60 -28.18,53.16 -29.18,53.49 -30.40,53.60 -30.40,60.00 -28.18,60.44 -27.40,61.00 -26.84,61.78 -26.51,62.78">
        <request index="0" response="111000" foes="111000" cont="0"/>
        <request index="1" response="111000" foes="111000" cont="0"/>
        <request index="2" response="110000" foes="110000" cont="1"/>
        <request index="3" response="000000" foes="000011" cont="0"/>
        <request index="4" response="000000" foes="000111" cont="0"/>
        <request index="5" response="000000" foes="000111" cont="0"/>
    </junction>
    <junction id="8" type="priority" x="0.00" y="60.00" incLanes="gneE33_0 gneE33_1 gneE40_0 gneE40_1" intLanes=":8_0_0 :8_0_1 :8_6_0 :8_3_0 :8_4_0 :8_4_1" shape="-6.40,64.00 0.00,64.00 0.44,61.78 1.00,61.00 1.78,60.44 2.78,60.11 4.00,60.00 4.00,53.60 1.78,53.16 1.00,52.60 0.44,51.82 0.11,50.82 0.00,49.60 -6.40,49.60 -6.84,51.82 -7.40,52.60 -8.18,53.16 -9.18,53.49 -10.40,53.60 -10.40,60.00 -8.18,60.44 -7.40,61.00 -6.84,61.78 -6.51,62.78">
        <request index="0" response="111000" foes="111000" cont="0"/>
        <request index="1" response="111000" foes="111000" cont="0"/>
        <request index="2" response="110000" foes="110000" cont="1"/>
        <request index="3" response="000000" foes="000011" cont="0"/>
        <request index="4" response="000000" foes="000111" cont="0"/>
        <request index="5" response="000000" foes="000111" cont="0"/>
    </junction>
    <junction id="9" type="priority" x="20.00" y="60.00" incLanes="gneE35_0 gneE35_1 gneE41_0 gneE41_1" intLanes=":9_0_0 :9_0_1 :9_6_0 :9_3_0 :9_4_0 :9_4_1" shape="13.60,64.00 20.00,64.00 20.44,61.78 21.00,61.00 21.78,60.44 22.78,60.11 24.00,60.00 24.00,53.60 21.78,53.16 21.00,52.60 20.44,51.82 20.11,50.82 20.00,49.60 13.60,49.60 13.16,51.82 12.60,52.60 11.82,53.16 10.82,53.49 9.60,53.60 9.60,60.00 11.82,60.44 12.60,61.00 13.16,61.78 13.49,62.78">
        <request index="0" response="111000" foes="111000" cont="0"/>
        <request index="1" response="111000" foes="111000" cont="0"/>
        <request index="2" response="110000" foes="110000" cont="1"/>
        <request index="3" response="000000" foes="000011" cont="0"/>
        <request index="4" response="000000" foes="000111" cont="0"/>
        <request index="5" response="000000" foes="000111" cont="0"/>
    </junction>

    <junction id=":12_4_0" type="internal" x="-24.16" y="20.00" incLanes=":12_0_0 gneE43_0 gneE43_1" intLanes=":12_2_0 :12_2_1"/>
    <junction id=":12_5_0" type="internal" x="-20.32" y="20.00" incLanes=":12_1_0 gneE43_0 gneE43_1" intLanes=":12_2_0 :12_2_1"/>
    <junction id=":13_6_0" type="internal" x="-0.32" y="20.00" incLanes=":13_2_0 gneE44_0 gneE44_1" intLanes=":13_4_0 :13_4_1"/>
    <junction id=":14_4_0" type="internal" x="15.84" y="20.00" incLanes=":14_0_0 gneE45_0 gneE45_1" intLanes=":14_2_0 :14_2_1"/>
    <junction id=":14_5_0" type="internal" x="19.68" y="20.00" incLanes=":14_1_0 gneE45_0 gneE45_1" intLanes=":14_2_0 :14_2_1"/>
    <junction id=":7_6_0" type="internal" x="-20.32" y="60.00" incLanes=":7_2_0 gneE39_0 gneE39_1" intLanes=":7_4_0 :7_4_1"/>
    <junction id=":8_6_0" type="internal" x="-0.32" y="60.00" incLanes=":8_2_0 gneE40_0 gneE40_1" intLanes=":8_4_0 :8_4_1"/>
    <junction id=":9_6_0" type="internal" x="19.68" y="60.00" incLanes=":9_2_0 gneE41_0 gneE41_1" intLanes=":9_4_0 :9_4_1"/>

    <connection from="gneE25" to="gneE31" fromLane="0" toLane="0" via=":2_0_0" dir="r" state="M"/>
    <connection from="gneE25" to="gneE31" fromLane="0" toLane="1" via=":2_1_0" dir="r" state="M"/>
    <connection from="gneE25" to="gneE26" fromLane="0" toLane="0" via=":2_2_0" dir="s" state="M"/>
    <connection from="gneE25" to="gneE26" fromLane="0" toLane="1" via=":2_2_1" dir="s" state="M"/>
    <connection from="gneE26" to="gneE33" fromLane="0" toLane="0" via=":3_0_0" dir="r" state="M"/>
    <connection from="gneE26" to="gneE33" fromLane="0" toLane="1" via=":3_1_0" dir="r" state="M"/>
    <connection from="gneE26" to="gneE27" fromLane="0" toLane="0" via=":3_2_0" dir="s" state="M"/>
    <connection from="gneE26" to="gneE27" fromLane="1" toLane="1" via=":3_2_1" dir="s" state="M"/>
    <connection from="gneE27" to="gneE35" fromLane="0" toLane="0" via=":4_0_0" dir="r" state="M"/>
    <connection from="gneE27" to="gneE35" fromLane="0" toLane="1" via=":4_1_0" dir="r" state="M"/>
    <connection from="gneE27" to="gneE28" fromLane="0" toLane="0" via=":4_2_0" dir="s" state="M"/>
    <connection from="gneE27" to="gneE28" fromLane="1" toLane="1" via=":4_2_1" dir="s" state="M"/>
    <connection from="gneE28" to="gneE37" fromLane="0" toLane="0" via=":5_0_0" dir="r" state="M"/>
    <connection from="gneE28" to="gneE37" fromLane="1" toLane="1" via=":5_1_0" dir="r" state="M"/>
    <connection from="gneE29" to="gneE30" fromLane="0" toLane="0" via=":6_0_0" dir="s" state="M"/>
    <connection from="gneE29" to="gneE30" fromLane="1" toLane="1" via=":6_0_1" dir="s" state="M"/>
    <connection from="gneE29" to="gneE39" fromLane="1" toLane="0" via=":6_2_0" dir="l" state="M"/>
    <connection from="gneE29" to="gneE39" fromLane="1" toLane="1" via=":6_3_0" dir="l" state="M"/>
    <connection from="gneE30" to="gneE43" fromLane="0" toLane="0" via=":11_0_0" dir="l" state="M"/>
    <connection from="gneE30" to="gneE43" fromLane="1" toLane="1" via=":11_1_0" dir="l" state="M"/>
    <connection from="gneE31" to="gneE32" fromLane="0" toLane="0" via=":7_0_0" dir="s" state="m"/>
    <connection from="gneE31" to="gneE32" fromLane="1" toLane="1" via=":7_0_1" dir="s" state="m"/>
    <connection from="gneE31" to="gneE40" fromLane="1" toLane="1" via=":7_2_0" dir="l" state="m"/>