<?xml version="1.0" encoding="UTF-8"?>

<!-- generated on 02/13/21 01:21:04 by Eclipse SUMO netedit Version 1.8.0
<configuration xmlns:xsi="http://www.w3.org/2001/XMLSchema-instance" xsi:noNamespaceSchemaLocation="http://sumo.dlr.de/xsd/netconvertConfiguration.xsd">

    <output>
        <output-file value="D:\Desktop%20Work\GitHub\Parking-Simulation-SUMO\Parking\ParkingDesign.net.xml"/>
    </output>

    <processing>
        <offset.disable-normalization value="true"/>
    </processing>

    <junctions>
        <no-turnarounds value="true"/>
    </junctions>

    <netedit>
        <additional-files value="D:\Desktop%20Work\GitHub\Parking-Simulation-SUMO\Parking\parkingSpaces.add.xml"/>
    </netedit>

    <report>
        <aggregate-warnings value="5"/>
    </report>

</configuration>
-->

<additional xmlns:xsi="http://www.w3.org/2001/XMLSchema-instance" xsi:noNamespaceSchemaLocation="http://sumo.dlr.de/xsd/additional_file.xsd">
    <parkingArea id="parkingArea_gneE29_0_8" lane="gneE29_0" startPos="0.00" endPos="28.00" roadsideCapacity="10"/>
    <parkingArea id="parkingArea_gneE30_0_9" lane="gneE30_0" startPos="0.00" endPos="29.00"/>
    <parkingArea id="parkingArea_gneE31_0_0" lane="gneE31_0" startPos="0.00" endPos="25.00"/>
    <parkingArea id="parkingArea_gneE32_0_4" lane="gneE32_0" startPos="0.00" endPos="25.00"/>
    <parkingArea id="parkingArea_gneE33_0_1" lane="gneE33_0" startPos="0.00" endPos="25.00"/>
    <parkingArea id="parkingArea_gneE34_0_5" lane="gneE34_0" startPos="0.00" endPos="25.00"/>
    <parkingArea id="parkingArea_gneE35_0_2" lane="gneE35_0" startPos="0.00" endPos="25.00"/>
    <parkingArea id="parkingArea_gneE36_0_6" lane="gneE36_0" startPos="0.00" endPos="25.00"/>
    <parkingArea id="parkingArea_gneE37_0_3" lane="gneE37_0" startPos="5.00" endPos="29.00"/>
    <parkingArea id="parkingArea_gneE38_0_7" lane="gneE38_0" startPos="0.00" endPos="26.00"/>
    <parkingArea id="parkingArea_gneE43_0_10" lane="gneE43_0" startPos="8.60" endPos="9.00"/>
    <parkingArea id="parkingArea_gneE43_0_11" lane="gneE43_0" startPos="8.60" endPos="9.00"/>
    <parkingArea id="parkingArea_gneE43_0_12" lane="gneE43_0" startPos="8.60" endPos="9.00"/>
    <parkingArea id="parkingArea_gneE43_0_16" lane="gneE43_0" startPos="8.60" endPos="9.00"/>
    <parkingArea id="parkingArea_gneE43_0_17" lane="gneE43_0" startPos="8.60" endPos="9.00"/>
    <parkingArea id="parkingArea_gneE44_0_13" lane="gneE44_0" startPos="0.00" endPos="5.60"/>
    <parkingArea id="parkingArea_gneE45_0_14" lane="gneE45_0" startPos="0.00" endPos="5.60"/>
    <parkingArea id="parkingArea_gneE46_0_15" lane="gneE46_0" startPos="0.00" endPos="8.10"/>
</additional>
