<?xml version="1.0" encoding="UTF-8"?>

<!-- generated on 02/16/21 10:55:08 by Eclipse SUMO netedit Version 1.8.0
<configuration xmlns:xsi="http://www.w3.org/2001/XMLSchema-instance" xsi:noNamespaceSchemaLocation="http://sumo.dlr.de/xsd/netconvertConfiguration.xsd">

    <input>
        <sumo-net-file value="D:\Desktop%20Work\GitHub\Parking-Simulation-SUMO\Parking\parkingDesign.net.xml"/>
    </input>

    <output>
        <output-file value="D:\Desktop%20Work\GitHub\Parking-Simulation-SUMO\Parking\parkingDesign.net.xml"/>
    </output>

    <processing>
        <geometry.min-radius.fix.railways value="false"/>
        <geometry.max-grade.fix value="false"/>
        <offset.disable-normalization value="true"/>
        <lefthand value="false"/>
    </processing>

    <junctions>
        <no-turnarounds value="true"/>
        <junctions.corner-detail value="5"/>
        <junctions.limit-turn-speed value="5.5"/>
        <rectangular-lane-cut value="false"/>
    </junctions>

    <pedestrian>
        <walkingareas value="false"/>
    </pedestrian>

    <netedit>
        <additional-files value="D:\Desktop%20Work\GitHub\Parking-Simulation-SUMO\Parking\parkingSpaces.add.xml"/>
    </netedit>

    <report>
        <aggregate-warnings value="5"/>
    </report>

</configuration>
-->

<additional xmlns:xsi="http://www.w3.org/2001/XMLSchema-instance" xsi:noNamespaceSchemaLocation="http://sumo.dlr.de/xsd/additional_file.xsd">
    <parkingArea id="pa1" lane="a3_0" startPos="0.00" endPos="28.10">
        <space x="33.50" y="22.50" angle="90.00"/>
    </parkingArea>
</additional>
