<?xml version="1.0" encoding="UTF-8"?>

<!-- generated on 12/01/20 20:06:57 by Eclipse SUMO netedit Version 1.7.0
<configuration xmlns:xsi="http://www.w3.org/2001/XMLSchema-instance" xsi:noNamespaceSchemaLocation="http://sumo.dlr.de/xsd/netconvertConfiguration.xsd">

    <output>
        <output-file value="C:\Users\hp\Desktop\SUMO\highway.net.xml"/>
    </output>

    <processing>
        <offset.disable-normalization value="true"/>
    </processing>

    <junctions>
        <no-turnarounds value="true"/>
    </junctions>

    <report>
        <aggregate-warnings value="5"/>
    </report>

</configuration>
-->

<net version="1.6" junctionCornerDetail="5" limitTurnSpeed="5.50" xmlns:xsi="http://www.w3.org/2001/XMLSchema-instance" xsi:noNamespaceSchemaLocation="http://sumo.dlr.de/xsd/net_file.xsd">

    <location netOffset="0.00,0.00" convBoundary="-44.82,49.96,216.18,49.96" origBoundary="10000000000.00,10000000000.00,-10000000000.00,-10000000000.00" projParameter="!"/>

    <edge id=":gneJ1_0" function="internal">
        <lane id=":gneJ1_0_0" index="0" speed="13.89" length="0.10" shape="83.37,41.96 83.37,41.96"/>
        <lane id=":gneJ1_0_1" index="1" speed="13.89" length="0.10" shape="83.37,45.16 83.37,45.16"/>
        <lane id=":gneJ1_0_2" index="2" speed="13.89" length="0.10" shape="83.37,48.36 83.37,48.36"/>
    </edge>

    <edge id="e1" from="gneJ0" to="gneJ1" priority="-1">
        <lane id="e1_0" index="0" speed="13.89" length="128.20" shape="-44.82,41.96 83.37,41.96"/>
        <lane id="e1_1" index="1" speed="13.89" length="128.20" shape="-44.82,45.16 83.37,45.16"/>
        <lane id="e1_2" index="2" speed="13.89" length="128.20" shape="-44.82,48.36 83.37,48.36"/>
    </edge>
    <edge id="e2" from="gneJ1" to="gneJ2" priority="-1">
        <lane id="e2_0" index="0" speed="13.89" length="132.81" shape="83.37,41.96 216.18,41.96"/>
        <lane id="e2_1" index="1" speed="13.89" length="132.81" shape="83.37,45.16 216.18,45.16"/>
        <lane id="e2_2" index="2" speed="13.89" length="132.81" shape="83.37,48.36 216.18,48.36"/>
    </edge>

    <junction id="gneJ0" type="dead_end" x="-44.82" y="49.96" incLanes="" intLanes="" shape="-44.82,49.96 -44.82,40.36"/>
    <junction id="gneJ1" type="priority" x="83.37" y="49.96" incLanes="e1_0 e1_1 e1_2" intLanes=":gneJ1_0_0 :gneJ1_0_1 :gneJ1_0_2" shape="83.37,49.96 83.37,40.36 83.37,49.96">
        <request index="0" response="000" foes="000" cont="0"/>
        <request index="1" response="000" foes="000" cont="0"/>
        <request index="2" response="000" foes="000" cont="0"/>
    </junction>
    <junction id="gneJ2" type="dead_end" x="216.18" y="49.96" incLanes="e2_0 e2_1 e2_2" intLanes="" shape="216.18,40.36 216.18,49.96"/>

    <connection from="e1" to="e2" fromLane="0" toLane="0" via=":gneJ1_0_0" dir="s" state="M"/>
    <connection from="e1" to="e2" fromLane="1" toLane="1" via=":gneJ1_0_1" dir="s" state="M"/>
    <connection from="e1" to="e2" fromLane="2" toLane="2" via=":gneJ1_0_2" dir="s" state="M"/>

    <connection from=":gneJ1_0" to="e2" fromLane="0" toLane="0" dir="s" state="M"/>
    <connection from=":gneJ1_0" to="e2" fromLane="1" toLane="1" dir="s" state="M"/>
    <connection from=":gneJ1_0" to="e2" fromLane="2" toLane="2" dir="s" state="M"/>

</net>
