<?xml version="1.0" encoding="UTF-8"?>

<!-- generated on 02/05/21 01:54:05 by Eclipse SUMO netedit Version 1.8.0
<configuration xmlns:xsi="http://www.w3.org/2001/XMLSchema-instance" xsi:noNamespaceSchemaLocation="http://sumo.dlr.de/xsd/netconvertConfiguration.xsd">

    <input>
        <sumo-net-file value="D:\Desktop%20Work\GitHub\Parking-Simulation-SUMO\Scenario1\helloWorld.net.xml"/>
    </input>

    <output>
        <output-file value="D:\Desktop%20Work\GitHub\Parking-Simulation-SUMO\Scenario1\helloWorld.net.xml"/>
    </output>

    <processing>
        <geometry.min-radius.fix.railways value="false"/>
        <geometry.max-grade.fix value="false"/>
        <offset.disable-normalization value="true"/>
        <lefthand value="false"/>
    </processing>

    <junctions>
        <no-turnarounds value="true"/>
        <junctions.corner-detail value="5"/>
        <junctions.limit-turn-speed value="5.5"/>
        <rectangular-lane-cut value="false"/>
    </junctions>

    <pedestrian>
        <walkingareas value="false"/>
    </pedestrian>

    <netedit>
        <route-files value="D:\Desktop%20Work\GitHub\Parking-Simulation-SUMO\Scenario1\helloWorld.rou.xml"/>
    </netedit>

    <report>
        <aggregate-warnings value="5"/>
    </report>

</configuration>
-->

<routes xmlns:xsi="http://www.w3.org/2001/XMLSchema-instance" xsi:noNamespaceSchemaLocation="http://sumo.dlr.de/xsd/routes_file.xsd">
    <route edges="gneE0 gneE1" color="yellow" id="route_0"/>
    <route edges="gneE0 gneE1" color="yellow" id="route_1"/>
    <route edges="gneE0 gneE1" color="yellow" id="route_2"/>
    <trip id="vehicle_0" depart="0.00" from="gneE0" to="gneE1"/>
</routes>
